[General]

simtime-resolution=us
sim-time-limit = 1000s

**.packetsToSend=100000
**.packetDelay=0.0001


**.node[*].x=index()*100
**.node[*].y=200

[Config Demo]
network=Demo
**.pktgen1.destination = "host1"


